&HEAD CHID='FS1 MOE'/
&TIME T_END=300/
DUMP DT_RESTART = 300.0, DT_SL3D=0.25/
&MESH ID='Apartment_Mesh1', IJK=75,33,32, XB=28.2,35.7,0.0,3.3,4.0,7.2/
&VENT ID='Mesh Vent: Apartment Inlet [YMAX]', SURF_ID='OPEN', XB=35.7,35.7,0.0,3.3,4.0,7.2/
&MESH ID='Corridor_Mesh1', IJK=229,21,32, XB=3.6,26.5,7.1,9.2,4.0,7.2/
&MESH ID='Corridor_Mesh2', IJK=36,71,32, XB=0.0,3.6,7.1,14.2,4.0,7.2/
&MESH ID='Corridor_Mesh3', IJK=43,97,32, XB=1.5,5.8,14.2,23.9,4.0,7.2/
&MESH ID='Corridor_Mesh4', IJK=17,240,32, XB=26.5,28.2,0.0,24.0,4.0,7.2/
&MESH ID='Stair_Mesh_Lower1', IJK=37,25,20, XB=3.6,11.0,9.2,14.2,0.0,4.0/
&MESH ID='Stair_Mesh_Middle1', IJK=74,50,32, XB=3.6,11.0,9.2,14.2,4.0,7.2/
&MESH ID='Stair_Mesh_Upper1', IJK=37,25,142, XB=3.6,11.0,9.2,14.2,7.2,35.6/
&VENT ID='Mesh Vent: Stair_Mesh_Upper1 [ZMAX]', SURF_ID='OPEN', XB=3.6,11.0,9.2,14.2,35.6,35.6/
&RAMP ID = 'Apartment Door Hole_RAMP', T = 59.75, F=-1.0/
&RAMP ID = 'Apartment Door Hole_RAMP', T = 60.25, F=1.0/
&RAMP ID = 'Apartment Door Hole_RAMP', T = 79.75, F=1.0/
&RAMP ID = 'Apartment Door Hole_RAMP', T = 80.25, F=-1.0/
&CTRL ID = 'Apartment Door Hole', FUNCTION_TYPE = 'CUSTOM', RAMP_ID = 'Apartment Door Hole_RAMP', LATCH =.FALSE., INPUT_ID='TIME'/
&DEVC ID = 'TIME', QUANTITY='TIME', XYZ = 32.3,1.5,0.0/
&RAMP ID = 'Stair Door Hole_RAMP', T = 69.75, F=-1.0/
&RAMP ID = 'Stair Door Hole_RAMP', T = 70.25, F=1.0/
&RAMP ID = 'Stair Door Hole_RAMP', T = 89.75, F=1.0/
&RAMP ID = 'Stair Door Hole_RAMP', T = 90.25, F=-1.0/
&CTRL ID = 'Stair Door Hole', FUNCTION_TYPE = 'CUSTOM', RAMP_ID = 'Stair Door Hole_RAMP', LATCH =.FALSE., INPUT_ID='TIME'/
&DEVC ID = 'TIME', QUANTITY='TIME', XYZ = 32.3,1.5,0.0/
&SURF ID='Plasterboard',
      COLOR='GRAY 80',
      DEFAULT=.TRUE.,
      BACKING='VOID',
      MATL_ID(1,1)='GYPSUM PLASTER',
      MATL_MASS_FRACTION(1,1)=1.0,
      THICKNESS(1)=0.05/
&MATL ID='GYPSUM PLASTER',
      FYI='Quintiere, Fire Behavior - NIST NRC Validation',
      SPECIFIC_HEAT=0.84,
      CONDUCTIVITY=0.48,
      DENSITY=1440.0/
&SPEC ID='WATER VAPOR'/
&PART ID='Water01',
      SPEC_ID ='WATER VAPOR',
      DIAMETER= 500.0,
      MONODISPERSE =.TRUE.,
      AGE = 10.0,
      SAMPLING_FACTOR=1/
&PROP ID='Residential Link BS 9251'
      PART_ID = 'Water01', 
      K_Factor =40.0,
      OPERATING_PRESSURE =0.5,
      PARTICLE_VELOCITY =5.0,
      SPRAY_ANGLE = 60.0, 75.0/
&DEVC ID='SPRK1', PROP_ID = 'Residential Link BS 9251', XYZ = 33.8, 3.1,7.0, QUANTITY='TIME', SETPOINT=0.0  /
&DEVC ID='SPRK2', PROP_ID = 'Residential Link BS 9251', XYZ = 31.0, 0.3,7.0, QUANTITY='TIME', SETPOINT=0.0  /
&SURF ID='Fire',
      COLOR='RED',
      HRRPUA=510.20408163265313
      TMP_FRONT=300.0/
&REAC ID='POLYURETHANE',
      FYI='NFPA Babrauskas',
      FUEL = 'REAC_FUEL',
      C=6.3,
      H=7.1,
      O=2.1,
      N=1.0,
      SOOT_YIELD =0.1,
      HEAT_OF_COMBUSTION =20000/
&OBST ID='STEP1', XB = 7.6, 7.8, 12.7, 14.2,4.0, 4.127, SURF_ID = 'Plasterboard'/
&OBST ID='STEP1', XB = 7.4, 7.6, 12.7, 14.2,4.127, 4.253, SURF_ID = 'Plasterboard'/
&OBST ID='STEP1', XB = 7.2, 7.4, 12.7, 14.2,4.253, 4.38, SURF_ID = 'Plasterboard'/
&OBST ID='STEP1', XB = 7.0, 7.2, 12.7, 14.2,4.38, 4.507, SURF_ID = 'Plasterboard'/
&OBST ID='STEP1', XB = 6.8, 7.0, 12.7, 14.2,4.507, 4.633, SURF_ID = 'Plasterboard'/
&OBST ID='STEP1', XB = 6.6, 6.8, 12.7, 14.2,4.633, 4.76, SURF_ID = 'Plasterboard'/
&OBST ID='STEP1', XB = 6.4, 6.6, 12.7, 14.2,4.76, 4.887, SURF_ID = 'Plasterboard'/
&OBST ID='STEP1', XB = 6.2, 6.4, 12.7, 14.2,4.887, 5.013, SURF_ID = 'Plasterboard'/
&OBST ID='STEP1', XB = 6.0, 6.2, 12.7, 14.2,5.013, 5.14, SURF_ID = 'Plasterboard'/
&OBST ID='STEP1', XB = 5.8, 6.0, 12.7, 14.2,5.14, 5.267, SURF_ID = 'Plasterboard'/
&OBST ID='STEP1', XB = 5.6, 5.8, 12.7, 14.2,5.267, 5.393, SURF_ID = 'Plasterboard'/
&OBST ID='STEP1', XB = 5.4, 5.6, 12.7, 14.2,5.393, 5.52, SURF_ID = 'Plasterboard'/
&OBST ID='STEP1', XB = 5.2, 5.4, 12.7, 14.2,5.52, 5.647, SURF_ID = 'Plasterboard'/
&OBST ID='STEP1', XB = 5.0, 5.2, 12.7, 14.2,5.647, 5.773, SURF_ID = 'Plasterboard'/
&OBST ID='STEP1', XB = 4.8, 5.0, 12.7, 14.2,5.773, 5.9, SURF_ID = 'Plasterboard'/
&OBST ID='STEP1', XB = 7.6, 7.8, 12.7, 14.2,7.8, 7.903, SURF_ID = 'Plasterboard'/
&OBST ID='STEP1', XB = 7.4, 7.6, 12.7, 14.2,7.903, 8.007, SURF_ID = 'Plasterboard'/
&OBST ID='STEP1', XB = 7.2, 7.4, 12.7, 14.2,8.007, 8.11, SURF_ID = 'Plasterboard'/
&OBST ID='STEP1', XB = 7.0, 7.2, 12.7, 14.2,8.11, 8.213, SURF_ID = 'Plasterboard'/
&OBST ID='STEP1', XB = 6.8, 7.0, 12.7, 14.2,8.213, 8.317, SURF_ID = 'Plasterboard'/
! ... 250 like lines cut
&OBST ID='LANDING', XB = 7.800000000000001, 9.8, 11.2, 14.200000000000001,7.8, 8.0, SURF_ID = 'Plasterboard'/
&OBST ID='ADDITIONAL LANDING', XB = 7.4, 11.0, 9.200000000000001, 11.4,7.8, 8.0, SURF_ID = 'Plasterboard'/
&OBST ID='LANDING', XB = 7.800000000000001, 9.8, 11.2, 14.200000000000001,10.9, 11.1, SURF_ID = 'Plasterboard'/
&OBST ID='ADDITIONAL LANDING', XB = 7.4, 11.0, 9.200000000000001, 11.4,10.9, 11.1, SURF_ID = 'Plasterboard'/
&OBST ID='LANDING', XB = 7.800000000000001, 9.8, 11.2, 14.200000000000001,13.9, 14.1, SURF_ID = 'Plasterboard'/
&OBST ID='ADDITIONAL LANDING', XB = 7.4, 11.0, 9.200000000000001, 11.4,13.9, 14.1, SURF_ID = 'Plasterboard'/
&OBST ID='LANDING', XB = 7.800000000000001, 9.8, 11.2, 14.200000000000001,16.9, 17.099999999999998, SURF_ID = 'Plasterboard'/
&OBST ID='ADDITIONAL LANDING', XB = 7.4, 11.0, 9.200000000000001, 11.4,16.9, 17.099999999999998, SURF_ID = 'Plasterboard'/
&OBST ID='LANDING', XB = 7.800000000000001, 9.8, 11.2, 14.200000000000001,19.9, 20.099999999999998, SURF_ID = 'Plasterboard'/
&OBST ID='ADDITIONAL LANDING', XB = 7.4, 11.0, 9.200000000000001, 11.4,19.9, 20.099999999999998, SURF_ID = 'Plasterboard'/
&OBST ID='LANDING', XB = 7.800000000000001, 9.8, 11.2, 14.200000000000001,22.9, 23.099999999999998, SURF_ID = 'Plasterboard'/
&OBST ID='ADDITIONAL LANDING', XB = 7.4, 11.0, 9.200000000000001, 11.4,22.9, 23.099999999999998, SURF_ID = 'Plasterboard'/
&OBST ID='LANDING', XB = 7.800000000000001, 9.8, 11.2, 14.200000000000001,25.9, 26.099999999999998, SURF_ID = 'Plasterboard'/
&OBST ID='ADDITIONAL LANDING', XB = 7.4, 11.0, 9.200000000000001, 11.4,25.9, 26.099999999999998, SURF_ID = 'Plasterboard'/
&OBST ID='LANDING', XB = 7.800000000000001, 9.8, 11.2, 14.200000000000001,28.9, 29.099999999999998, SURF_ID = 'Plasterboard'/
&OBST ID='ADDITIONAL LANDING', XB = 7.4, 11.0, 9.200000000000001, 11.4,28.9, 29.099999999999998, SURF_ID = 'Plasterboard'/
&OBST ID='LANDING', XB = 7.800000000000001, 9.8, 11.2, 14.200000000000001,31.9, 32.1, SURF_ID = 'Plasterboard'/
&OBST ID='ADDITIONAL LANDING', XB = 7.4, 11.0, 9.200000000000001, 11.4,31.9, 32.1, SURF_ID = 'Plasterboard'/
&OBST ID='HALF LANDING', XB = 3.6, 4.800000000000001, 11.2, 14.200000000000001,5.9, 6.1000000000000005, SURF_ID = 'Plasterboard'/
&OBST ID='HALF LANDING', XB = 3.6, 4.800000000000001, 11.2, 14.200000000000001,9.35, 9.549999999999999, SURF_ID = 'Plasterboard'/
&OBST ID='HALF LANDING', XB = 3.6, 4.800000000000001, 11.2, 14.200000000000001,12.4, 12.6, SURF_ID = 'Plasterboard'/
&OBST ID='HALF LANDING', XB = 3.6, 4.800000000000001, 11.2, 14.200000000000001,15.4, 15.6, SURF_ID = 'Plasterboard'/
&OBST ID='HALF LANDING', XB = 3.6, 4.800000000000001, 11.2, 14.200000000000001,18.4, 18.599999999999998, SURF_ID = 'Plasterboard'/
&OBST ID='HALF LANDING', XB = 3.6, 4.800000000000001, 11.2, 14.200000000000001,21.4, 21.599999999999998, SURF_ID = 'Plasterboard'/
&OBST ID='HALF LANDING', XB = 3.6, 4.800000000000001, 11.2, 14.200000000000001,24.4, 24.599999999999998, SURF_ID = 'Plasterboard'/
&OBST ID='HALF LANDING', XB = 3.6, 4.800000000000001, 11.2, 14.200000000000001,27.4, 27.599999999999998, SURF_ID = 'Plasterboard'/
&OBST ID='HALF LANDING', XB = 3.6, 4.800000000000001, 11.2, 14.200000000000001,30.4, 30.599999999999998, SURF_ID = 'Plasterboard'/
&OBST ID='STEP1', XB = 7.6, 7.8, 12.7, 14.2,0.0, 0.133, SURF_ID = 'Plasterboard'/
&OBST ID='STEP1', XB = 7.4, 7.6, 12.7, 14.2,0.133, 0.267, SURF_ID = 'Plasterboard'/
&OBST ID='STEP1', XB = 7.2, 7.4, 12.7, 14.2,0.267, 0.4, SURF_ID = 'Plasterboard'/
&OBST ID='STEP1', XB = 7.0, 7.2, 12.7, 14.2,0.4, 0.533, SURF_ID = 'Plasterboard'/
&OBST ID='STEP1', XB = 6.8, 7.0, 12.7, 14.2,0.533, 0.667, SURF_ID = 'Plasterboard'/
&OBST ID='STEP1', XB = 6.6, 6.8, 12.7, 14.2,0.667, 0.8, SURF_ID = 'Plasterboard'/
&OBST ID='STEP1', XB = 6.4, 6.6, 12.7, 14.2,0.8, 0.933, SURF_ID = 'Plasterboard'/
&OBST ID='STEP1', XB = 6.2, 6.4, 12.7, 14.2,0.933, 1.067, SURF_ID = 'Plasterboard'/
&OBST ID='STEP1', XB = 6.0, 6.2, 12.7, 14.2,1.067, 1.2, SURF_ID = 'Plasterboard'/
&OBST ID='STEP1', XB = 5.8, 6.0, 12.7, 14.2,1.2, 1.333, SURF_ID = 'Plasterboard'/
&OBST ID='STEP1', XB = 5.6, 5.8, 12.7, 14.2,1.333, 1.467, SURF_ID = 'Plasterboard'/
&OBST ID='STEP1', XB = 5.4, 5.6, 12.7, 14.2,1.467, 1.6, SURF_ID = 'Plasterboard'/
&OBST ID='STEP1', XB = 5.2, 5.4, 12.7, 14.2,1.6, 1.733, SURF_ID = 'Plasterboard'/
&OBST ID='STEP1', XB = 5.0, 5.2, 12.7, 14.2,1.733, 1.867, SURF_ID = 'Plasterboard'/
&OBST ID='STEP1', XB = 4.8, 5.0, 12.7, 14.2,1.867, 2.0, SURF_ID = 'Plasterboard'/
&OBST ID='STEP2', XB = 4.8, 5.0, 11.2, 12.7,2.0, 2.133, SURF_ID = 'Plasterboard'/
&OBST ID='STEP2', XB = 5.0, 5.2, 11.2, 12.7,2.133, 2.267, SURF_ID = 'Plasterboard'/
&OBST ID='STEP2', XB = 5.2, 5.4, 11.2, 12.7,2.267, 2.4, SURF_ID = 'Plasterboard'/
&OBST ID='STEP2', XB = 5.4, 5.6, 11.2, 12.7,2.4, 2.533, SURF_ID = 'Plasterboard'/
&OBST ID='STEP2', XB = 5.6, 5.8, 11.2, 12.7,2.533, 2.667, SURF_ID = 'Plasterboard'/
! ... 10 like lines cut
&OBST ID='LANDING', XB = 7.800000000000001, 9.8, 11.2, 14.200000000000001,4.0, 4.2, SURF_ID = 'Plasterboard'/
&OBST ID='ADDITIONAL LANDING', XB = 7.4, 11.0, 9.200000000000001, 11.4,4.0, 4.2, SURF_ID = 'Plasterboard'/
&OBST ID='HALF LANDING', XB = 3.6, 4.800000000000001, 11.2, 14.200000000000001,2.0, 2.2, SURF_ID = 'Plasterboard'/
&SURF ID='Extract',
      RGB=26,128,26,
      VOLUME_FLOW=5.0,
      RAMP_V='5.0_RAMP_V'/
&RAMP ID='5.0_RAMP_V', T=70.0, F=0.0/
&RAMP ID='5.0_RAMP_V', T=80.0, F=1.0/
&SLCF QUANTITY = 'TEMPERATURE', CELL_CENTERED = .FALSE.,PBX=6.516062064727567/
&SLCF QUANTITY = 'TEMPERATURE', CELL_CENTERED = .FALSE.,PBX=10.3/
&SLCF QUANTITY = 'TEMPERATURE', CELL_CENTERED = .FALSE.,PBX=32.4/
&SLCF QUANTITY = 'TEMPERATURE', CELL_CENTERED = .FALSE.,PBX=14.100000000000001/
&SLCF QUANTITY = 'TEMPERATURE', CELL_CENTERED = .FALSE.,PBY=12.775529496108152/
&SLCF QUANTITY = 'TEMPERATURE', CELL_CENTERED = .FALSE.,PBY=1.25/
&SLCF QUANTITY = 'TEMPERATURE', CELL_CENTERED = .FALSE.,PBY=1.7/
&SLCF QUANTITY = 'TEMPERATURE', CELL_CENTERED = .FALSE.,PBY=11.95/
&SLCF QUANTITY = 'TEMPERATURE', CELL_CENTERED = .FALSE.,PBZ=6.0/
&SLCF QUANTITY = 'VISIBILITY', CELL_CENTERED = .FALSE.,PBX=6.516062064727567/
&SLCF QUANTITY = 'VISIBILITY', CELL_CENTERED = .FALSE.,PBX=10.3/
&SLCF QUANTITY = 'VISIBILITY', CELL_CENTERED = .FALSE.,PBX=32.4/
&SLCF QUANTITY = 'VISIBILITY', CELL_CENTERED = .FALSE.,PBX=14.100000000000001/
&SLCF QUANTITY = 'VISIBILITY', CELL_CENTERED = .FALSE.,PBY=12.775529496108152/
&SLCF QUANTITY = 'VISIBILITY', CELL_CENTERED = .FALSE.,PBY=1.25/
&SLCF QUANTITY = 'VISIBILITY', CELL_CENTERED = .FALSE.,PBY=1.7/
&SLCF QUANTITY = 'VISIBILITY', CELL_CENTERED = .FALSE.,PBY=11.95/
&SLCF QUANTITY = 'VISIBILITY', CELL_CENTERED = .FALSE.,PBZ=6.0/
&SLCF QUANTITY = 'VELOCITY', CELL_CENTERED = .FALSE.,PBX=6.516062064727567/
&SLCF QUANTITY = 'VELOCITY', CELL_CENTERED = .FALSE.,PBX=10.3/
&SLCF QUANTITY = 'VELOCITY', CELL_CENTERED = .FALSE.,PBX=32.4/
&SLCF QUANTITY = 'VELOCITY', CELL_CENTERED = .FALSE.,PBX=14.100000000000001/
&SLCF QUANTITY = 'VELOCITY', CELL_CENTERED = .FALSE.,PBY=12.775529496108152/
&SLCF QUANTITY = 'VELOCITY', CELL_CENTERED = .FALSE.,PBY=1.25/
&SLCF QUANTITY = 'VELOCITY', CELL_CENTERED = .FALSE.,PBY=1.7/
&SLCF QUANTITY = 'VELOCITY', CELL_CENTERED = .FALSE.,PBY=11.95/
&SLCF QUANTITY = 'VELOCITY', CELL_CENTERED = .FALSE.,PBZ=6.0/
&DEVC ID='stair_temp_1', QUANTITY = 'TEMPERATURE', XYZ= 10.3, 10.0, 4.5/
&DEVC ID='stair_temp_2', QUANTITY = 'TEMPERATURE', XYZ= 10.3, 10.0, 5.0/
&DEVC ID='stair_temp_3', QUANTITY = 'TEMPERATURE', XYZ= 10.3, 10.0, 5.5/
&DEVC ID='stair_temp_4', QUANTITY = 'TEMPERATURE', XYZ= 10.3, 10.0, 6.0/
&DEVC ID='stair_temp_5', QUANTITY = 'TEMPERATURE', XYZ= 10.3, 11.0, 4.5/
&DEVC ID='stair_temp_6', QUANTITY = 'TEMPERATURE', XYZ= 10.3, 11.0, 5.0/
&DEVC ID='stair_temp_7', QUANTITY = 'TEMPERATURE', XYZ= 10.3, 11.0, 5.5/
&DEVC ID='stair_temp_8', QUANTITY = 'TEMPERATURE', XYZ= 10.3, 11.0, 6.0/
&DEVC ID='stair_vis_1', QUANTITY = 'VISIBILITY', XYZ= 10.3, 10.0, 4.5/
&DEVC ID='stair_vis_2', QUANTITY = 'VISIBILITY', XYZ= 10.3, 10.0, 5.0/
&DEVC ID='stair_vis_3', QUANTITY = 'VISIBILITY', XYZ= 10.3, 10.0, 5.5/
&DEVC ID='stair_vis_4', QUANTITY = 'VISIBILITY', XYZ= 10.3, 10.0, 6.0/
&DEVC ID='stair_vis_5', QUANTITY = 'VISIBILITY', XYZ= 10.3, 11.0, 4.5/
&DEVC ID='stair_vis_6', QUANTITY = 'VISIBILITY', XYZ= 10.3, 11.0, 5.0/
&DEVC ID='stair_vis_7', QUANTITY = 'VISIBILITY', XYZ= 10.3, 11.0, 5.5/
&DEVC ID='stair_vis_8', QUANTITY = 'VISIBILITY', XYZ= 10.3, 11.0, 6.0/
&OBST ID='Fire',XB =31.7,33.1,1.0,2.4,4.0,4.5, SURF_IDS='Fire','Plasterboard','Plasterboard'/
&VENT ID='Mech Extract1',SURF_ID = 'Extract',XB =27.0,27.0,22.7,23.6,5.8,6.4/
&HOLE ID='HoleApt_Door_Side'XB =28.0,28.6,0.8,1.7,3.999,6.1, CTRL_ID ='Apartment Door Hole'/
&HOLE ID='HoleStair_door_side'XB =9.8,10.8,8.799999999999999,9.6,3.999,6.1, CTRL_ID ='Stair Door Hole'/
&OBST ID='Corridor Walls'XB =27.0,27.1,22.3,23.9,4.0,7.2, SURF_ID='Plasterboard'/
&OBST ID='Corridor Walls'XB =28.2,28.3,22.0,23.8,4.0,7.2, SURF_ID='Plasterboard'/
&OBST ID='Corridor Walls'XB =27.8,27.9,19.0,22.0,4.0,7.2, SURF_ID='Plasterboard'/
&OBST ID='Corridor Walls'XB =28.2,28.3,15.1,19.0,4.0,7.2, SURF_ID='Plasterboard'/
&OBST ID='Corridor Walls'XB =27.7,27.8,12.1,15.1,4.0,7.2, SURF_ID='Plasterboard'/
&OBST ID='Corridor Walls'XB =28.2,28.3,8.2,12.1,4.0,7.2, SURF_ID='Plasterboard'/
&OBST ID='Corridor Walls'XB =27.8,27.9,5.2,8.2,4.0,7.2, SURF_ID='Plasterboard'/
&OBST ID='Corridor Walls'XB =28.1,28.2,3.2,5.2,4.0,7.2, SURF_ID='Plasterboard'/
&OBST ID='Corridor Walls'XB =27.8,27.9,1.8,3.2,4.0,7.2, SURF_ID='Plasterboard'/
&OBST ID='Corridor Walls'XB =28.2,28.3,-0.1,1.8,4.0,7.2, SURF_ID='Plasterboard'/
&OBST ID='Corridor Walls'XB =26.5,26.6,-0.1,7.1,4.0,7.2, SURF_ID='Plasterboard'/
&OBST ID='Corridor Walls'XB =0.3,0.4,7.1,7.9,4.0,7.2, SURF_ID='Plasterboard'/
&OBST ID='Non Ortho Corridor Walls'XB =0.0,0.4,7.9,8.1,4.0,7.2, SURF_ID='Plasterboard'/
&OBST ID='Corridor Walls'XB =0.0,0.1,8.1,8.72,4.0,7.2, SURF_ID='Plasterboard'/
&OBST ID='Corridor Walls'XB =0.1,0.2,8.51,9.13,4.0,7.2, SURF_ID='Plasterboard'/
&OBST ID='Corridor Walls'XB =0.2,0.3,8.92,9.54,4.0,7.2, SURF_ID='Plasterboard'/
&OBST ID='Corridor Walls'XB =0.3,0.4,9.33,9.95,4.0,7.2, SURF_ID='Plasterboard'/
&OBST ID='Corridor Walls'XB =0.4,0.5,9.74,10.36,4.0,7.2, SURF_ID='Plasterboard'/
&OBST ID='Corridor Walls'XB =0.5,0.6,10.16,10.77,4.0,7.2, SURF_ID='Plasterboard'/
&OBST ID='Corridor Walls'XB =0.6,0.7,10.57,11.18,4.0,7.2, SURF_ID='Plasterboard'/
&OBST ID='Corridor Walls'XB =0.7,0.8,10.98,11.59,4.0,7.2, SURF_ID='Plasterboard'/
&OBST ID='Corridor Walls'XB =0.8,0.9,11.39,11.8,4.0,7.2, SURF_ID='Plasterboard'/
&OBST ID='Corridor Walls'XB =1.3,1.42,11.8,12.52,4.0,7.2, SURF_ID='Plasterboard'/
&OBST ID='Corridor Walls'XB =1.42,1.53,12.28,13.01,4.0,7.2, SURF_ID='Plasterboard'/
&OBST ID='Corridor Walls'XB =1.53,1.65,12.77,13.49,4.0,7.2, SURF_ID='Plasterboard'/
&OBST ID='Corridor Walls'XB =1.65,1.77,13.25,13.98,4.0,7.2, SURF_ID='Plasterboard'/
&OBST ID='Corridor Walls'XB =1.77,1.88,13.73,14.46,4.0,7.2, SURF_ID='Plasterboard'/
&OBST ID='Corridor Walls'XB =1.88,2.0,14.22,14.7,4.0,7.2, SURF_ID='Plasterboard'/
&OBST ID='Corridor Walls'XB =1.6,2.0,14.7,14.8,4.0,7.2, SURF_ID='Plasterboard'/
&OBST ID='Corridor Walls'XB =1.6,1.71,14.8,15.51,4.0,7.2, SURF_ID='Plasterboard'/
&OBST ID='Corridor Walls'XB =1.71,1.83,15.28,15.99,4.0,7.2, SURF_ID='Plasterboard'/
&OBST ID='Corridor Walls'XB =1.83,1.94,15.75,16.46,4.0,7.2, SURF_ID='Plasterboard'/
&OBST ID='Corridor Walls'XB =1.94,2.05,16.23,16.94,4.0,7.2, SURF_ID='Plasterboard'/
! ... 43 like lines cut
&OBST ID='Apt Walls'XB =34.7,34.8,-0.1,3.1,4.0,7.2, SURF_ID='Plasterboard'/
&OBST ID='Apt Walls'XB =28.2,28.3,-0.1,3.2,4.0,7.2, SURF_ID='Plasterboard'/
&OBST ID='Apt Walls'XB =28.2,34.8,3.1,3.2,4.0,7.2, SURF_ID='Plasterboard'/
&OBST ID='Apt Walls'XB =28.2,34.7,-0.1,-0.0,4.0,7.2, SURF_ID='Plasterboard'/
&OBST ID='Stair Wall'XB =9.8,9.9,11.1,14.1,0.0,34.5, SURF_ID='Plasterboard'/
&OBST ID='Stair Wall'XB =11.0,11.1,9.1,11.1,0.0,34.5, SURF_ID='Plasterboard'/
&OBST ID='Stair Wall'XB =7.4,7.5,9.1,11.4,0.0,34.5, SURF_ID='Plasterboard'/
&OBST ID='Stair Wall'XB =3.6,3.7,11.3,14.2,0.0,34.5, SURF_ID='Plasterboard'/
&OBST ID='Stair Wall'XB =3.6,9.9,14.1,14.2,0.0,34.5, SURF_ID='Plasterboard'/
&OBST ID='Stair Wall'XB =9.8,11.1,11.1,11.2,0.0,34.5, SURF_ID='Plasterboard'/
&OBST ID='Stair Wall'XB =7.4,11.0,9.1,9.2,0.0,34.5, SURF_ID='Plasterboard'/
&OBST ID='Stair Wall'XB =3.6,7.4,11.3,11.4,0.0,34.5, SURF_ID='Plasterboard'/
&OBST ID = 'Stair Roof', XB = 3.6, 11.0, 9.200000000000001, 14.200000000000001, 34.3, 34.5, SURF_ID='Plasterboard'/
&OBST ID='Int Apt Walls'XB =9.8,9.9,11.1,14.1,4.0,7.2, SURF_ID='Plasterboard'/
&OBST ID='Int Apt Walls'XB =11.0,11.1,9.1,11.1,4.0,7.2, SURF_ID='Plasterboard'/
&OBST ID='Int Apt Walls'XB =7.4,7.5,9.1,11.4,4.0,7.2, SURF_ID='Plasterboard'/
&OBST ID='Int Apt Walls'XB =3.6,3.7,11.3,14.2,4.0,7.2, SURF_ID='Plasterboard'/
&OBST ID='Int Apt Walls'XB =3.6,9.9,14.1,14.2,4.0,7.2, SURF_ID='Plasterboard'/
&OBST ID='Int Apt Walls'XB =9.8,11.1,11.1,11.2,4.0,7.2, SURF_ID='Plasterboard'/
&OBST ID='Int Apt Walls'XB =7.4,11.0,9.1,9.2,4.0,7.2, SURF_ID='Plasterboard'/
&OBST ID='Int Apt Walls'XB =3.6,7.4,11.3,11.4,4.0,7.2, SURF_ID='Plasterboard'/
&HOLE ID='AOV'XB =6.0,7.0,12.2,13.2,34.1,34.9/
&HOLE ID='Apartment Inlet Hole',XB =34.5,34.9,0.7,2.5,4.0,4.8/