PD1.fds
Generated by PyroSim - Version 2023.2.0816
19 Sep 2023, 12:20:42

&HEAD CHID='PD1'/
&TIME T_END=1800.0/
&DUMP DT_DEVC=1.0, DT_RESTART=400.0/

&MESH ID='MESH', IJK=43,66,27, XB=-0.1,4.2,-0.1,6.5,0.0,2.7/
&MESH ID='MESH01', IJK=41,66,28, XB=-0.1,4.0,-0.1,6.5,2.7,5.5/
&MESH ID='MESH02', IJK=31,56,23, XB=-0.1,3.0,0.9,6.5,5.5,7.8/

&SPEC ID='WATER VAPOR'/
&SPEC ID='REAC_FUEL', FORMULA='C3.434H6.19O2.483N0.017'/

&PART ID='Water',
      SPEC_ID='WATER VAPOR',
      DIAMETER=500.0,
      MONODISPERSE=.TRUE.,
      AGE=10.0,
      SAMPLING_FACTOR=1/

&REAC ID='Fire',
      FUEL='REAC_FUEL',
      AUTO_IGNITION_TEMPERATURE=0.0,
      CO_YIELD=6.4E-3,
      SOOT_YIELD=0.016,
      HCN_YIELD=5.0E-5,
      HEAT_OF_COMBUSTION=1.807564E+4/

&PROP ID='Cleary Photoelectric P1',
      QUANTITY='CHAMBER OBSCURATION',
      ALPHA_E=1.8,
      BETA_E=-1.0,
      ALPHA_C=1.0,
      BETA_C=-0.8/
&PROP ID='BS 9251',
      PART_ID='Water',
      FLOW_RATE=49.05,
      PARTICLE_VELOCITY=5.0,
      SPRAY_ANGLE=60.0,75.0/
&DEVC ID='CD1', QUANTITY='DENSITY', SPEC_ID='CARBON DIOXIDE', XYZ=0.4,3.8,7.1/
&DEVC ID='CD2', QUANTITY='DENSITY', SPEC_ID='CARBON DIOXIDE', XYZ=0.4,6.0,5.4/
&DEVC ID='CD3', QUANTITY='DENSITY', SPEC_ID='CARBON DIOXIDE', XYZ=1.4,6.0,5.4/
&DEVC ID='CD4', QUANTITY='DENSITY', SPEC_ID='CARBON DIOXIDE', XYZ=0.9,3.9,4.4/
&DEVC ID='CD5', QUANTITY='DENSITY', SPEC_ID='CARBON DIOXIDE', XYZ=0.4,6.0,3.2/
&DEVC ID='CD6', QUANTITY='DENSITY', SPEC_ID='CARBON DIOXIDE', XYZ=1.4,6.0,2.4/
&DEVC ID='CD7', QUANTITY='DENSITY', SPEC_ID='CARBON DIOXIDE', XYZ=1.4,4.0,1.7/
&DEVC ID='CD8', QUANTITY='DENSITY', SPEC_ID='CARBON DIOXIDE', XYZ=0.6,3.2,1.7/
&DEVC ID='CD9', QUANTITY='DENSITY', SPEC_ID='CARBON DIOXIDE', XYZ=0.6,1.6,1.7/
&DEVC ID='CD10', QUANTITY='DENSITY', SPEC_ID='CARBON DIOXIDE', XYZ=0.6,0.1,1.7/
&DEVC ID='CM1', QUANTITY='DENSITY', SPEC_ID='CARBON MONOXIDE', XYZ=0.4,3.8,7.1/
&DEVC ID='CM2', QUANTITY='DENSITY', SPEC_ID='CARBON MONOXIDE', XYZ=0.4,6.0,5.4/
&DEVC ID='CM3', QUANTITY='DENSITY', SPEC_ID='CARBON MONOXIDE', XYZ=1.4,6.0,5.4/
&DEVC ID='CM4', QUANTITY='DENSITY', SPEC_ID='CARBON MONOXIDE', XYZ=0.9,3.9,4.4/
&DEVC ID='CM5', QUANTITY='DENSITY', SPEC_ID='CARBON MONOXIDE', XYZ=0.4,6.0,3.2/
&DEVC ID='CM6', QUANTITY='DENSITY', SPEC_ID='CARBON MONOXIDE', XYZ=1.4,6.0,2.4/
&DEVC ID='CM7', QUANTITY='DENSITY', SPEC_ID='CARBON MONOXIDE', XYZ=1.4,4.0,1.7/
&DEVC ID='CM8', QUANTITY='DENSITY', SPEC_ID='CARBON MONOXIDE', XYZ=0.6,3.2,1.7/
&DEVC ID='CM9', QUANTITY='DENSITY', SPEC_ID='CARBON MONOXIDE', XYZ=0.6,1.6,1.7/
&DEVC ID='CM10', QUANTITY='DENSITY', SPEC_ID='CARBON MONOXIDE', XYZ=0.6,0.1,1.7/
&DEVC ID='HCN1', QUANTITY='DENSITY', SPEC_ID='HYDROGEN CYANIDE', XYZ=0.4,3.8,7.1/
&DEVC ID='HCN2', QUANTITY='DENSITY', SPEC_ID='HYDROGEN CYANIDE', XYZ=0.4,6.0,5.4/
&DEVC ID='HCN3', QUANTITY='DENSITY', SPEC_ID='HYDROGEN CYANIDE', XYZ=1.4,6.0,5.4/
&DEVC ID='HCN4', QUANTITY='DENSITY', SPEC_ID='HYDROGEN CYANIDE', XYZ=0.9,3.9,4.4/
&DEVC ID='HCN5', QUANTITY='DENSITY', SPEC_ID='HYDROGEN CYANIDE', XYZ=0.4,6.0,3.2/
&DEVC ID='HCN6', QUANTITY='DENSITY', SPEC_ID='HYDROGEN CYANIDE', XYZ=1.4,6.0,2.4/
&DEVC ID='HCN7', QUANTITY='DENSITY', SPEC_ID='HYDROGEN CYANIDE', XYZ=1.4,4.0,1.7/
&DEVC ID='HCN8', QUANTITY='DENSITY', SPEC_ID='HYDROGEN CYANIDE', XYZ=0.6,3.2,1.7/
&DEVC ID='HCN9', QUANTITY='DENSITY', SPEC_ID='HYDROGEN CYANIDE', XYZ=0.6,1.6,1.7/
&DEVC ID='HCN10', QUANTITY='DENSITY', SPEC_ID='HYDROGEN CYANIDE', XYZ=0.6,0.1,1.7/
&DEVC ID='VIS1', QUANTITY='VISIBILITY', XYZ=0.4,3.8,7.1/
&DEVC ID='VIS2', QUANTITY='VISIBILITY', XYZ=0.4,6.0,5.4/
&DEVC ID='VIS3', QUANTITY='VISIBILITY', XYZ=1.4,6.0,5.4/
&DEVC ID='VIS4', QUANTITY='VISIBILITY', XYZ=0.9,3.9,4.4/
&DEVC ID='VIS5', QUANTITY='VISIBILITY', XYZ=0.4,6.0,3.2/
&DEVC ID='VIS6', QUANTITY='VISIBILITY', XYZ=1.4,6.0,2.4/
&DEVC ID='VIS7', QUANTITY='VISIBILITY', XYZ=1.4,4.0,1.7/
&DEVC ID='VIS8', QUANTITY='VISIBILITY', XYZ=0.6,3.2,1.7/
&DEVC ID='VIS9', QUANTITY='VISIBILITY', XYZ=0.6,1.6,1.7/
&DEVC ID='VIS10', QUANTITY='VISIBILITY', XYZ=0.6,0.1,1.7/
&DEVC ID='TEMP1', QUANTITY='TEMPERATURE', XYZ=0.4,3.8,7.1/
&DEVC ID='TEMP2', QUANTITY='TEMPERATURE', XYZ=0.4,6.0,5.4/
&DEVC ID='TEMP3', QUANTITY='TEMPERATURE', XYZ=1.4,6.0,5.4/
&DEVC ID='TEMP4', QUANTITY='TEMPERATURE', XYZ=0.9,3.9,4.4/
&DEVC ID='TEMP5', QUANTITY='TEMPERATURE', XYZ=0.4,6.0,3.2/
&DEVC ID='TEMP6', QUANTITY='TEMPERATURE', XYZ=1.4,6.0,2.4/
&DEVC ID='TEMP7', QUANTITY='TEMPERATURE', XYZ=1.4,4.0,1.7/
&DEVC ID='TEMP8', QUANTITY='TEMPERATURE', XYZ=0.6,3.2,1.7/
&DEVC ID='TEMP9', QUANTITY='TEMPERATURE', XYZ=0.6,1.6,1.7/
&DEVC ID='TEMP10', QUANTITY='TEMPERATURE', XYZ=0.6,0.1,1.7/
&DEVC ID='RAD1', QUANTITY='RADIATIVE HEAT FLUX GAS', XYZ=0.4,3.8,7.1/
&DEVC ID='RAD2', QUANTITY='RADIATIVE HEAT FLUX GAS', XYZ=0.4,6.0,5.4/
&DEVC ID='RAD3', QUANTITY='RADIATIVE HEAT FLUX GAS', XYZ=1.4,6.0,5.4/
&DEVC ID='RAD4', QUANTITY='RADIATIVE HEAT FLUX GAS', XYZ=0.9,3.9,4.4/
&DEVC ID='RAD5', QUANTITY='RADIATIVE HEAT FLUX GAS', XYZ=0.4,6.0,3.2/
&DEVC ID='RAD6', QUANTITY='RADIATIVE HEAT FLUX GAS', XYZ=1.4,6.0,2.4/
&DEVC ID='RAD7', QUANTITY='RADIATIVE HEAT FLUX GAS', XYZ=1.4,4.0,1.7/
&DEVC ID='RAD8', QUANTITY='RADIATIVE HEAT FLUX GAS', XYZ=0.6,3.2,1.7/
&DEVC ID='RAD9', QUANTITY='RADIATIVE HEAT FLUX GAS', XYZ=0.6,1.6,1.7/
&DEVC ID='RAD10', QUANTITY='RADIATIVE HEAT FLUX GAS', XYZ=0.6,0.1,1.7/
&DEVC ID='WATER1', QUANTITY='VOLUME FRACTION', SPEC_ID='WATER VAPOR', XYZ=0.4,3.8,7.1/
&DEVC ID='WATER2', QUANTITY='VOLUME FRACTION', SPEC_ID='WATER VAPOR', XYZ=0.4,6.0,5.4/
&DEVC ID='WATER3', QUANTITY='VOLUME FRACTION', SPEC_ID='WATER VAPOR', XYZ=1.4,6.0,5.4/
&DEVC ID='WATER4', QUANTITY='VOLUME FRACTION', SPEC_ID='WATER VAPOR', XYZ=0.9,3.9,4.4/
&DEVC ID='WATER5', QUANTITY='VOLUME FRACTION', SPEC_ID='WATER VAPOR', XYZ=0.4,6.0,3.2/
&DEVC ID='WATER6', QUANTITY='VOLUME FRACTION', SPEC_ID='WATER VAPOR', XYZ=1.4,6.0,2.4/
&DEVC ID='WATER7', QUANTITY='VOLUME FRACTION', SPEC_ID='WATER VAPOR', XYZ=1.4,4.0,1.7/
&DEVC ID='WATER8', QUANTITY='VOLUME FRACTION', SPEC_ID='WATER VAPOR', XYZ=0.6,3.2,1.7/
&DEVC ID='WATER9', QUANTITY='VOLUME FRACTION', SPEC_ID='WATER VAPOR', XYZ=0.6,1.6,1.7/
&DEVC ID='WATER10', QUANTITY='VOLUME FRACTION', SPEC_ID='WATER VAPOR', XYZ=0.6,0.1,1.7/
&DEVC ID='Smoke detector LDLD1_01', PROP_ID='Cleary Photoelectric P1', XYZ=0.6,2.6,2.4/
&DEVC ID='Smoke detector LDLD1_02', PROP_ID='Cleary Photoelectric P1', XYZ=0.9,4.1,4.8/
&DEVC ID='Smoke detector LDLD1_03', PROP_ID='Cleary Photoelectric P1', XYZ=0.4,3.7,7.2/
&DEVC ID='Smoke detector LDLD1_00', PROP_ID='Cleary Photoelectric P1', XYZ=2.0,2.163348,2.4/
&DEVC ID='Lounge_Fire_1_SPRK1', PROP_ID='BS 9251', XYZ=2.0,2.4,2.4, QUANTITY='TIME', SETPOINT=184.0/

&MATL ID='GYPSUM PLASTER',
      FYI='Quintiere',
      SPECIFIC_HEAT=0.84,
      CONDUCTIVITY=0.48,
      DENSITY=1440.0/

&SURF ID='Gypsum',
      RGB=146,202,166,
      DEFAULT=.TRUE.,
      BACKING='INSULATED',
      MATL_ID(1,1)='GYPSUM PLASTER',
      MATL_MASS_FRACTION(1,1)=1.0,
      THICKNESS(1)=0.025/
&SURF ID='ADIABATIC',
      COLOR='GRAY 80',
      ADIABATIC=.TRUE./
&SURF ID='Ring 1',
      COLOR='RED',
      HRRPUA=496.296296,
      RAMP_Q='Ring 1_RAMP_Q',
      TMP_FRONT=300.0/
&RAMP ID='Ring 1_RAMP_Q', T=0.0, F=0.0/
&RAMP ID='Ring 1_RAMP_Q', T=1.0, F=5.894E-4/
&RAMP ID='Ring 1_RAMP_Q', T=2.0, F=2.3575E-3/
&RAMP ID='Ring 1_RAMP_Q', T=3.0, F=5.3043E-3/
&RAMP ID='Ring 1_RAMP_Q', T=4.0, F=9.4299E-3/
&RAMP ID='Ring 1_RAMP_Q', T=5.0, F=0.014734/
&RAMP ID='Ring 1_RAMP_Q', T=6.0, F=0.021217/
&RAMP ID='Ring 1_RAMP_Q', T=7.0, F=0.028879/
&RAMP ID='Ring 1_RAMP_Q', T=8.0, F=0.037719/
&RAMP ID='Ring 1_RAMP_Q', T=9.0, F=0.047739/
&RAMP ID='Ring 1_RAMP_Q', T=10.0, F=0.058937/
&RAMP ID='Ring 1_RAMP_Q', T=11.0, F=0.071313/
&RAMP ID='Ring 1_RAMP_Q', T=12.0, F=0.084869/
&RAMP ID='Ring 1_RAMP_Q', T=13.0, F=0.099603/
&RAMP ID='Ring 1_RAMP_Q', T=14.0, F=0.115516/
&RAMP ID='Ring 1_RAMP_Q', T=15.0, F=0.132607/
&RAMP ID='Ring 1_RAMP_Q', T=16.0, F=0.150878/
&RAMP ID='Ring 1_RAMP_Q', T=17.0, F=0.170327/
&RAMP ID='Ring 1_RAMP_Q', T=18.0, F=0.190954/
&RAMP ID='Ring 1_RAMP_Q', T=19.0, F=0.212761/
! ... 25 like lines cut
&SURF ID='Ring 2',
      COLOR='RED',
      HRRPUA=496.296296,
      RAMP_Q='Ring 2_RAMP_Q',
      TMP_FRONT=300.0/
&RAMP ID='Ring 2_RAMP_Q', T=41.191498, F=0.0/
&RAMP ID='Ring 2_RAMP_Q', T=41.191598, F=1.6E-6/
&RAMP ID='Ring 2_RAMP_Q', T=42.191598, F=0.016383/
&RAMP ID='Ring 2_RAMP_Q', T=43.191598, F=0.033157/
&RAMP ID='Ring 2_RAMP_Q', T=44.191598, F=0.050324/
&RAMP ID='Ring 2_RAMP_Q', T=45.191598, F=0.067883/
&RAMP ID='Ring 2_RAMP_Q', T=46.191598, F=0.085836/
&RAMP ID='Ring 2_RAMP_Q', T=47.191598, F=0.104182/
&RAMP ID='Ring 2_RAMP_Q', T=48.191598, F=0.12292/
&RAMP ID='Ring 2_RAMP_Q', T=49.191598, F=0.142052/
&RAMP ID='Ring 2_RAMP_Q', T=50.191598, F=0.161576/
&RAMP ID='Ring 2_RAMP_Q', T=51.191598, F=0.181493/
&RAMP ID='Ring 2_RAMP_Q', T=52.191598, F=0.201803/
&RAMP ID='Ring 2_RAMP_Q', T=53.191598, F=0.222506/
&RAMP ID='Ring 2_RAMP_Q', T=54.191598, F=0.243602/
&RAMP ID='Ring 2_RAMP_Q', T=55.191598, F=0.265091/
&RAMP ID='Ring 2_RAMP_Q', T=56.191598, F=0.286973/
&RAMP ID='Ring 2_RAMP_Q', T=57.191598, F=0.309248/
&RAMP ID='Ring 2_RAMP_Q', T=58.191598, F=0.331915/
&RAMP ID='Ring 2_RAMP_Q', T=59.191598, F=0.354976/
! ... 26 like lines cut
&SURF ID='Ring 3',
      COLOR='RED',
      HRRPUA=496.296296,
      RAMP_Q='Ring 3_RAMP_Q',
      TMP_FRONT=300.0/
&RAMP ID='Ring 3_RAMP_Q', T=82.382995, F=0.0/
&RAMP ID='Ring 3_RAMP_Q', T=82.383095, F=1.9E-6/
&RAMP ID='Ring 3_RAMP_Q', T=83.383095, F=0.019541/
&RAMP ID='Ring 3_RAMP_Q', T=84.383095, F=0.039316/
&RAMP ID='Ring 3_RAMP_Q', T=85.383095, F=0.059327/
&RAMP ID='Ring 3_RAMP_Q', T=86.383095, F=0.079574/
&RAMP ID='Ring 3_RAMP_Q', T=87.383095, F=0.100056/
&RAMP ID='Ring 3_RAMP_Q', T=88.383095, F=0.120774/
&RAMP ID='Ring 3_RAMP_Q', T=89.383095, F=0.141728/
&RAMP ID='Ring 3_RAMP_Q', T=90.383095, F=0.162918/
&RAMP ID='Ring 3_RAMP_Q', T=91.383095, F=0.184343/
&RAMP ID='Ring 3_RAMP_Q', T=92.383095, F=0.206004/
&RAMP ID='Ring 3_RAMP_Q', T=93.383095, F=0.227901/
&RAMP ID='Ring 3_RAMP_Q', T=94.383095, F=0.250034/
&RAMP ID='Ring 3_RAMP_Q', T=95.383095, F=0.272402/
&RAMP ID='Ring 3_RAMP_Q', T=96.383095, F=0.295006/
&RAMP ID='Ring 3_RAMP_Q', T=97.383095, F=0.317846/
&RAMP ID='Ring 3_RAMP_Q', T=98.383095, F=0.340922/
&RAMP ID='Ring 3_RAMP_Q', T=99.383095, F=0.364233/
&RAMP ID='Ring 3_RAMP_Q', T=100.383095, F=0.38778/
! ... 26 like lines cut
&SURF ID='Ring 4',
      COLOR='RED',
      HRRPUA=496.296296,
      RAMP_Q='Ring 4_RAMP_Q',
      TMP_FRONT=300.0/
&RAMP ID='Ring 4_RAMP_Q', T=123.574493, F=0.0/
&RAMP ID='Ring 4_RAMP_Q', T=123.574593, F=2.1E-6/
&RAMP ID='Ring 4_RAMP_Q', T=124.574593, F=0.020895/
&RAMP ID='Ring 4_RAMP_Q', T=125.574593, F=0.041956/
&RAMP ID='Ring 4_RAMP_Q', T=126.574593, F=0.063186/
&RAMP ID='Ring 4_RAMP_Q', T=127.574593, F=0.084584/
&RAMP ID='Ring 4_RAMP_Q', T=128.574593, F=0.106151/
&RAMP ID='Ring 4_RAMP_Q', T=129.574593, F=0.127886/
&RAMP ID='Ring 4_RAMP_Q', T=130.574593, F=0.149789/
&RAMP ID='Ring 4_RAMP_Q', T=131.574593, F=0.171861/
&RAMP ID='Ring 4_RAMP_Q', T=132.574593, F=0.194101/
&RAMP ID='Ring 4_RAMP_Q', T=133.574593, F=0.216509/
&RAMP ID='Ring 4_RAMP_Q', T=134.574593, F=0.239086/
&RAMP ID='Ring 4_RAMP_Q', T=135.574593, F=0.261831/
&RAMP ID='Ring 4_RAMP_Q', T=136.574593, F=0.284745/
&RAMP ID='Ring 4_RAMP_Q', T=137.574593, F=0.307827/
&RAMP ID='Ring 4_RAMP_Q', T=138.574593, F=0.331077/
&RAMP ID='Ring 4_RAMP_Q', T=139.574593, F=0.354496/
&RAMP ID='Ring 4_RAMP_Q', T=140.574593, F=0.378083/
&RAMP ID='Ring 4_RAMP_Q', T=141.574593, F=0.401839/
! ... 26 like lines cut
&SURF ID='Ring 5',
      COLOR='RED',
      HRRPUA=496.296296,
      RAMP_Q='Ring 5_RAMP_Q',
      TMP_FRONT=300.0/
&RAMP ID='Ring 5_RAMP_Q', T=164.76599, F=0.0/
&RAMP ID='Ring 5_RAMP_Q', T=164.76609, F=2.2E-6/
&RAMP ID='Ring 5_RAMP_Q', T=165.76609, F=0.021647/
&RAMP ID='Ring 5_RAMP_Q', T=166.76609, F=0.043423/
&RAMP ID='Ring 5_RAMP_Q', T=167.76609, F=0.06533/
&RAMP ID='Ring 5_RAMP_Q', T=168.76609, F=0.087368/
&RAMP ID='Ring 5_RAMP_Q', T=169.76609, F=0.109536/
&RAMP ID='Ring 5_RAMP_Q', T=170.76609, F=0.131836/
&RAMP ID='Ring 5_RAMP_Q', T=171.76609, F=0.154267/
&RAMP ID='Ring 5_RAMP_Q', T=172.76609, F=0.176829/
&RAMP ID='Ring 5_RAMP_Q', T=173.76609, F=0.199521/
&RAMP ID='Ring 5_RAMP_Q', T=174.76609, F=0.222345/
&RAMP ID='Ring 5_RAMP_Q', T=175.76609, F=0.2453/
&RAMP ID='Ring 5_RAMP_Q', T=176.76609, F=0.268385/
&RAMP ID='Ring 5_RAMP_Q', T=177.76609, F=0.291602/
&RAMP ID='Ring 5_RAMP_Q', T=178.76609, F=0.314949/
&RAMP ID='Ring 5_RAMP_Q', T=179.76609, F=0.338428/
&RAMP ID='Ring 5_RAMP_Q', T=180.76609, F=0.362037/
&RAMP ID='Ring 5_RAMP_Q', T=181.76609, F=0.385778/
&RAMP ID='Ring 5_RAMP_Q', T=182.76609, F=0.409649/
&RAMP ID='Ring 5_RAMP_Q', T=183.76609, F=0.433652/
&RAMP ID='Ring 5_RAMP_Q', T=184.76609, F=0.457785/
&RAMP ID='Ring 5_RAMP_Q', T=304.76609, F=0.0/

&OBST ID='Flat_Entrance_Door', XB=0.2,1.1,-1.387779E-17,0.0,8.326673E-17,2.1, COLOR='GREEN', SURF_ID='Gypsum'/ 
&OBST ID='Wall', XB=2.0,2.1,3.5,4.7,2.7,5.4, SURF_ID='Gypsum'/ 
&OBST ID='Wall', XB=0.0,3.9,3.4,3.5,2.7,5.4, SURF_ID='Gypsum'/ 
&OBST ID='Wall', XB=1.8,2.1,4.7,6.5,2.7,5.4, SURF_ID='Gypsum'/ 
&OBST ID='Wall', XB=-0.1,0.0,1.0,6.4,5.4,7.5, RGB=240,240,240, TRANSPARENCY=0.247059, SURF_ID='Gypsum'/ 
&OBST ID='Wall', XB=-0.1,-1.387779E-17,-1.387779E-17,6.4,0.0,2.7, RGB=146,202,166, TRANSPARENCY=0.247059/ 
&OBST ID='Wall', XB=-0.1,4.0,-0.1,-1.387779E-17,0.0,2.7, RGB=146,202,166, TRANSPARENCY=0.247059/ 
&OBST ID='Wall', XB=-0.1,4.0,6.4,6.5,0.0,2.7, RGB=146,202,166, TRANSPARENCY=0.247059/ 
&OBST ID='Wall', XB=1.8,1.9,4.6,6.4,0.0,2.5/ 
&OBST ID='Wall', XB=1.8,3.9,4.5,4.6,0.0,2.5/ 
&OBST ID='Wall', XB=3.7,3.8,1.5,2.4,0.0,2.7, RGB=146,202,166, TRANSPARENCY=0.247059/ 
&OBST ID='Wall', XB=3.7,4.0,1.4,1.5,0.0,2.7, RGB=146,202,166, TRANSPARENCY=0.247059/ 
&OBST ID='Wall', XB=3.7,4.0,2.4,2.5,0.0,2.7, RGB=146,202,166, TRANSPARENCY=0.247059/ 
&OBST ID='Wall', XB=3.9,4.0,-1.387779E-17,1.4,0.0,2.7, RGB=146,202,166, TRANSPARENCY=0.247059/ 
&OBST ID='Wall', XB=3.9,4.0,2.5,6.4,0.0,2.7, RGB=146,202,166, TRANSPARENCY=0.247059/ 
&OBST ID='Wall', XB=-0.1,-2.775558E-17,-2.775558E-17,6.4,2.7,5.4, RGB=146,202,166, TRANSPARENCY=0.247059,  SURF_ID='Gypsum'/ 
&OBST ID='Wall', XB=-0.1,4.0,-0.1,-2.775558E-17,2.7,5.4, RGB=146,202,166, TRANSPARENCY=0.247059,  SURF_ID='Gypsum'/ 
&OBST ID='Wall', XB=-0.1,4.0,6.4,6.5,2.7,5.4, RGB=146,202,166, TRANSPARENCY=0.247059,  SURF_ID='Gypsum'/ 
&OBST ID='Wall', XB=-2.775558E-17,1.0,3.4,3.5,5.4,5.5,  SURF_ID='Gypsum'/ 
&OBST ID='Wall', XB=-2.775558E-17,1.0,6.3,6.4,5.4,5.5, SURF_ID='Gypsum'/ 
&OBST ID='Wall', XB=-2.775558E-17,2.9,1.0,1.1,5.4,5.5, RGB=146,202,166, TRANSPARENCY=0.247059,  SURF_ID='Gypsum'/ 
&OBST ID='Wall', XB=0.9,1.0,3.5,6.3,5.4,5.5, SURF_ID='Gypsum'/ 
&OBST ID='Wall', XB=1.0,2.9,4.6,4.7,5.4,5.5, RGB=146,202,166, TRANSPARENCY=0.247059,  SURF_ID='Gypsum'/ 
&OBST ID='Wall', XB=2.8,2.9,1.1,4.6,5.4,5.5, RGB=146,202,166, TRANSPARENCY=0.247059, SURF_ID='Gypsum'/ 
&OBST ID='Wall', XB=3.7,3.8,1.8,2.1,2.7,5.4, RGB=146,202,166, TRANSPARENCY=0.247059,  SURF_ID='Gypsum'/ 
&OBST ID='Wall', XB=3.7,4.0,1.7,1.8,2.7,5.4, RGB=146,202,166, TRANSPARENCY=0.247059,  SURF_ID='Gypsum'/ 
&OBST ID='Wall', XB=3.7,4.0,2.1,2.2,2.7,5.4, RGB=146,202,166, TRANSPARENCY=0.247059,  SURF_ID='Gypsum'/ 
&OBST ID='Wall', XB=3.9,4.0,-2.775558E-17,1.7,2.7,5.4, RGB=146,202,166, TRANSPARENCY=0.247059,  SURF_ID='Gypsum'/ 
&OBST ID='Wall', XB=3.9,4.0,2.2,6.4,2.7,5.4, RGB=146,202,166, TRANSPARENCY=0.247059,  SURF_ID='Gypsum'/ 
&OBST ID='Wall', XB=0.0,1.0,3.4,3.5,5.5,7.5, SURF_ID='Gypsum'/ 
&OBST ID='Wall', XB=0.0,1.0,6.3,6.4,5.5,7.5, SURF_ID='Gypsum'/ 
&OBST ID='Wall', XB=0.0,2.9,1.0,1.1,5.5,7.5, RGB=146,202,166, TRANSPARENCY=0.247059,  SURF_ID='Gypsum'/ 
&OBST ID='Wall', XB=0.9,1.0,3.5,6.3,5.5,7.5, SURF_ID='Gypsum'/ 
&OBST ID='Wall', XB=1.0,2.9,4.6,4.7,5.5,7.5, RGB=146,202,166, TRANSPARENCY=0.247059,  SURF_ID='Gypsum'/ 
&OBST ID='Wall', XB=2.8,2.9,1.1,4.6,5.5,7.5, RGB=146,202,166, TRANSPARENCY=0.247059,  SURF_ID='Gypsum'/ 
&OBST ID='1st Floor', XB=-1.387779E-17,3.7,1.4,2.5,2.5,2.7, SURF_ID='Gypsum'/ 
&OBST ID='1st Floor', XB=-1.387779E-17,3.9,-1.387779E-17,1.4,2.5,2.7, SURF_ID='Gypsum'/ 
&OBST ID='1st Floor', XB=-1.387779E-17,3.9,2.5,4.5,2.5,2.7, SURF_ID='Gypsum'/ 
&OBST ID='1st Floor', XB=1.8,3.9,4.5,6.5,2.5,2.7, SURF_ID='Gypsum'/ 
&OBST ID='2nd Floor', XB=-2.775558E-17,3.7,1.7,2.2,5.2,5.4, SURF_ID='Gypsum'/ 
&OBST ID='2nd Floor', XB=-2.775558E-17,3.9,-2.775558E-17,1.7,5.2,5.4, SURF_ID='Gypsum'/ 
&OBST ID='2nd Floor', XB=-2.775558E-17,3.9,2.2,4.0,5.2,5.4, SURF_ID='Gypsum'/ 
&OBST ID='2nd Floor', XB=0.9,3.9,4.0,6.5,5.2,5.4, SURF_ID='Gypsum'/ 
&OBST ID='Loft Roof', XB=-0.1,0.6,0.9,6.5,7.5,7.7, RGB=146,202,166, TRANSPARENCY=0.247059, SURF_ID='Gypsum'/ 
&OBST ID='Loft Slant', XB=3.9,4.0,-0.1,6.5,5.4,5.5, RGB=146,202,166, TRANSPARENCY=0.247059, SURF_ID='Gypsum'/ 
&OBST ID='Loft Slant', XB=3.8,3.9,-0.1,6.5,5.5,5.5, RGB=146,202,166, TRANSPARENCY=0.247059, SURF_ID='Gypsum'/ 
&OBST ID='Loft Slant', XB=0.6,0.7,0.9,6.5,7.5,7.6, RGB=146,202,166, TRANSPARENCY=0.247059, SURF_ID='Gypsum'/ 
&OBST ID='Loft Slant', XB=0.7,0.8,0.9,6.5,7.4,7.6, RGB=146,202,166, TRANSPARENCY=0.247059, SURF_ID='Gypsum'/ 
&OBST ID='Loft Slant', XB=0.8,0.9,0.9,6.5,7.3,7.6, RGB=146,202,166, TRANSPARENCY=0.247059, SURF_ID='Gypsum'/ 
&OBST ID='Loft Slant', XB=0.9,1.0,0.9,6.5,7.3,7.5, RGB=146,202,166, TRANSPARENCY=0.247059, SURF_ID='Gypsum'/ 
&OBST ID='Loft Slant', XB=1.0,1.1,0.9,6.5,7.2,7.5, RGB=146,202,166, TRANSPARENCY=0.247059, SURF_ID='Gypsum'/ 
&OBST ID='Loft Slant', XB=1.1,1.2,0.9,6.5,7.2,7.4, RGB=146,202,166, TRANSPARENCY=0.247059, SURF_ID='Gypsum'/ 
&OBST ID='Loft Slant', XB=1.2,1.3,0.9,6.5,7.1,7.3, RGB=146,202,166, TRANSPARENCY=0.247059, SURF_ID='Gypsum'/ 
&OBST ID='Loft Slant', XB=1.3,1.4,0.9,6.5,7.0,7.3, RGB=146,202,166, TRANSPARENCY=0.247059, SURF_ID='Gypsum'/ 
&OBST ID='Loft Slant', XB=1.4,1.5,0.9,6.5,7.0,7.2, RGB=146,202,166, TRANSPARENCY=0.247059, SURF_ID='Gypsum'/ 
&OBST ID='Loft Slant', XB=1.5,1.6,0.9,6.5,6.9,7.1, RGB=146,202,166, TRANSPARENCY=0.247059, SURF_ID='Gypsum'/ 
&OBST ID='Loft Slant', XB=1.6,1.7,0.9,6.5,6.8,7.1, RGB=146,202,166, TRANSPARENCY=0.247059, SURF_ID='Gypsum'/ 
&OBST ID='Loft Slant', XB=1.7,1.8,0.9,6.5,6.8,7.0, RGB=146,202,166, TRANSPARENCY=0.247059, SURF_ID='Gypsum'/ 
&OBST ID='Loft Slant', XB=1.8,1.9,0.9,6.5,6.7,7.0, RGB=146,202,166, TRANSPARENCY=0.247059, SURF_ID='Gypsum'/ 
&OBST ID='Loft Slant', XB=1.9,2.0,0.9,6.5,6.7,6.9, RGB=146,202,166, TRANSPARENCY=0.247059, SURF_ID='Gypsum'/ 
&OBST ID='Loft Slant', XB=2.0,2.1,0.9,6.5,6.6,6.8, RGB=146,202,166, TRANSPARENCY=0.247059, SURF_ID='Gypsum'/ 
&OBST ID='Loft Slant', XB=2.1,2.2,0.9,6.5,6.5,6.8, RGB=146,202,166, TRANSPARENCY=0.247059, SURF_ID='Gypsum'/ 
&OBST ID='Loft Slant', XB=2.2,2.3,0.9,6.5,6.5,6.7, RGB=146,202,166, TRANSPARENCY=0.247059, SURF_ID='Gypsum'/ 
&OBST ID='Loft Slant', XB=2.3,2.5,0.9,6.5,6.4,6.6, RGB=146,202,166, TRANSPARENCY=0.247059, SURF_ID='Gypsum'/ 
! ... 6 like lines cut
&OBST ID='Obstruction', XB=-1.387779E-17,0.1,6.3,6.4,1.3,1.5/ 
&OBST ID='Obstruction', XB=-1.387779E-17,0.2,6.2,6.3,1.3,1.5/ 
&OBST ID='Obstruction', XB=-1.387779E-17,0.3,6.1,6.2,1.3,1.5/ 
&OBST ID='Obstruction', XB=-1.387779E-17,0.4,6.0,6.1,1.3,1.5/ 
&OBST ID='Obstruction', XB=-1.387779E-17,0.5,5.9,6.0,1.3,1.5/ 
&OBST ID='Obstruction', XB=-1.387779E-17,0.6,5.8,5.9,1.3,1.5/ 
&OBST ID='Obstruction', XB=-1.387779E-17,0.7,5.7,5.8,1.3,1.5/ 
&OBST ID='Obstruction', XB=-1.387779E-17,0.8,5.6,5.7,1.3,1.5/ 
&OBST ID='Obstruction', XB=0.1,0.9,6.3,6.4,1.1,1.3/ 
&OBST ID='Obstruction', XB=0.2,0.9,6.2,6.3,1.1,1.3/ 
&OBST ID='Obstruction', XB=0.3,0.9,6.1,6.2,1.1,1.3/ 
&OBST ID='Obstruction', XB=0.4,0.9,6.0,6.1,1.1,1.3/ 
&OBST ID='Obstruction', XB=0.5,0.9,5.9,6.0,1.1,1.3/ 
&OBST ID='Obstruction', XB=0.6,0.9,5.8,5.9,1.1,1.3/ 
&OBST ID='Obstruction', XB=0.7,0.9,5.7,5.8,1.1,1.3/ 
&OBST ID='Obstruction', XB=0.8,0.9,5.6,5.7,1.1,1.3/ 
&OBST ID='Obstruction', XB=0.9,1.0,5.6,5.7,0.9,1.1/ 
&OBST ID='Obstruction', XB=0.9,1.1,5.7,5.8,0.9,1.1/ 
&OBST ID='Obstruction', XB=0.9,1.2,5.8,5.9,0.9,1.1/ 
&OBST ID='Obstruction', XB=0.9,1.3,5.9,6.0,0.9,1.1/ 
! ... 16 like lines cut
&OBST ID='Stair', XB=0.9,1.8,4.6,4.7,0.0,0.1/ 
&OBST ID='Stair', XB=0.9,1.8,4.7,4.9,0.0,0.2/ 
&OBST ID='Stair', XB=0.9,1.8,4.9,5.0,0.0,0.3/ 
&OBST ID='Stair', XB=0.9,1.8,5.0,5.1,0.1,0.3/ 
&OBST ID='Stair', XB=0.9,1.8,5.1,5.2,0.2,0.4/ 
&OBST ID='Stair', XB=0.9,1.8,5.2,5.3,0.2,0.5/ 
&OBST ID='Stair', XB=0.9,1.8,5.3,5.4,0.3,0.5/ 
&OBST ID='Stair', XB=0.9,1.8,5.4,5.5,0.4,0.6/ 
&OBST ID='Stair', XB=0.9,1.8,5.5,5.6,0.4,0.7/ 
&OBST ID='Stair', XB=0.9,1.8,5.6,5.7,0.5,0.6/ 
&OBST ID='Stair', XB=0.9,1.8,4.5,4.6,0.0,0.0/ 
&OBST ID='Stair', XB=-1.387779E-17,0.9,5.4,5.5,1.4,1.7/ 
&OBST ID='Stair', XB=-1.387779E-17,0.9,5.5,5.6,1.5,1.6/ 
&OBST ID='Stair', XB=-1.387779E-17,0.9,5.3,5.4,1.5,1.8/ 
&OBST ID='Stair', XB=-1.387779E-17,0.9,5.2,5.3,1.6,1.9/ 
&OBST ID='Stair', XB=-1.387779E-17,0.9,5.1,5.2,1.7,2.0/ 
&OBST ID='Stair', XB=-1.387779E-17,0.9,5.0,5.1,1.8,2.1/ 
&OBST ID='Stair', XB=-1.387779E-17,0.9,4.9,5.0,1.9,2.2/ 
&OBST ID='Stair', XB=-1.387779E-17,0.9,4.8,4.9,2.0,2.3/ 
&OBST ID='Stair', XB=-1.387779E-17,0.9,4.7,4.8,2.1,2.4/ 
! ... 5 like lines cut
&OBST ID='Stair', XB=-2.775558E-17,0.9,5.6,5.7,3.5,3.7, SURF_ID='Gypsum'/ 
&OBST ID='Stair', XB=-2.775558E-17,0.9,5.4,5.5,3.6,3.9, SURF_ID='Gypsum'/ 
&OBST ID='Stair', XB=-2.775558E-17,0.9,5.5,5.6,3.7,3.8, SURF_ID='Gypsum'/ 
&OBST ID='Stair', XB=-2.775558E-17,0.9,5.3,5.4,3.7,4.0, SURF_ID='Gypsum'/ 
&OBST ID='Stair', XB=-2.775558E-17,0.9,5.2,5.3,3.8,4.1, SURF_ID='Gypsum'/ 
&OBST ID='Stair', XB=-2.775558E-17,0.9,5.1,5.2,3.9,4.2, SURF_ID='Gypsum'/ 
&OBST ID='Stair', XB=-2.775558E-17,0.9,5.0,5.1,4.0,4.3, SURF_ID='Gypsum'/ 
&OBST ID='Stair', XB=-2.775558E-17,0.9,4.9,5.0,4.1,4.4, SURF_ID='Gypsum'/ 
&OBST ID='Stair', XB=-2.775558E-17,0.9,4.8,4.9,4.2,4.5, SURF_ID='Gypsum'/ 
&OBST ID='Stair', XB=-2.775558E-17,0.9,4.7,4.8,4.3,4.6, SURF_ID='Gypsum'/ 
&OBST ID='Stair', XB=-2.775558E-17,0.9,4.6,4.7,4.4,4.7, SURF_ID='Gypsum'/ 
&OBST ID='Stair', XB=-2.775558E-17,0.9,4.5,4.6,4.5,4.8, SURF_ID='Gypsum'/ 
&OBST ID='Stair', XB=-2.775558E-17,0.9,4.4,4.5,4.6,4.9, SURF_ID='Gypsum'/ 
&OBST ID='Stair', XB=-2.775558E-17,0.9,4.3,4.4,4.7,5.0, SURF_ID='Gypsum'/ 
&OBST ID='Stair', XB=-2.775558E-17,0.9,4.2,4.3,4.8,5.1, SURF_ID='Gypsum'/ 
&OBST ID='Stair', XB=-2.775558E-17,0.9,4.1,4.2,4.9,5.2, SURF_ID='Gypsum'/ 
&OBST ID='Stair', XB=-2.775558E-17,0.9,4.0,4.1,5.1,5.3, SURF_ID='Gypsum'/ 
&OBST ID='Stair', XB=-2.775558E-17,0.9,3.9,4.0,5.2,5.4, SURF_ID='Gypsum'/ 
&OBST ID='Stair', XB=-2.775558E-17,1.8,5.7,6.4,3.5,3.7, SURF_ID='Gypsum'/ 
&OBST ID='Stair', XB=0.9,1.8,4.6,4.7,2.7,2.8/ 
&OBST ID='Stair', XB=0.9,1.8,4.7,4.8,2.7,2.9/ 
&OBST ID='Stair', XB=0.9,1.8,4.8,4.9,2.7,3.0/ 
&OBST ID='Stair', XB=0.9,1.8,4.9,5.0,2.8,3.1/ 
&OBST ID='Stair', XB=0.9,1.8,5.0,5.1,2.9,3.2/ 
&OBST ID='Stair', XB=0.9,1.8,5.1,5.2,3.0,3.3/ 
&OBST ID='Stair', XB=0.9,1.8,5.2,5.3,3.1,3.4/ 
&OBST ID='Stair', XB=0.9,1.8,5.3,5.4,3.2,3.5/ 
&OBST ID='Stair', XB=0.9,1.8,5.4,5.5,3.3,3.6/ 
&OBST ID='Stair', XB=0.9,1.8,5.5,5.6,3.4,3.7/ 
&OBST ID='Stair', XB=0.9,1.8,5.6,5.7,3.5,3.6/ 
&OBST ID='Stair', XB=0.9,1.8,5.6,5.7,3.6,3.7, SURF_ID='Gypsum'/ 
&OBST ID='Stair', XB=0.9,1.8,4.5,4.6,2.7,2.7/ 
&OBST ID='Internal_Flat_Door_Single', XB=1.1,1.9,3.4,3.5,2.7,4.8, COLOR='GREEN', SURF_ID='Gypsum'/ 
&OBST ID='Internal_Flat_Door_Single', XB=0.1,0.8,3.4,3.5,5.4,7.4, COLOR='GREEN', SURF_ID='Gypsum'/ 
&OBST ID='Internal_Flat_Door_Single', XB=2.5,3.3,4.5,4.6,0.0,2.1, COLOR='GREEN', SURF_ID='Gypsum'/ 
&OBST ID='Fire Ring 1', XB=2.4,2.6,0.9,1.1,0.0,0.1, SURF_IDS='Ring 1','ADIABATIC','ADIABATIC'/ 
&OBST ID='Fire Ring 2', XB=2.3,2.7,0.8,0.9,0.0,0.1, SURF_IDS='Ring 2','ADIABATIC','ADIABATIC'/ 
&OBST ID='Fire Ring 2', XB=2.3,2.7,1.1,1.2,0.0,0.1, SURF_IDS='Ring 2','ADIABATIC','ADIABATIC'/ 
&OBST ID='Fire Ring 2', XB=2.3,2.4,0.9,1.1,0.0,0.1, SURF_IDS='Ring 2','ADIABATIC','ADIABATIC'/ 
&OBST ID='Fire Ring 2', XB=2.6,2.7,0.9,1.1,0.0,0.1, SURF_IDS='Ring 2','ADIABATIC','ADIABATIC'/ 
&OBST ID='Fire Ring 3', XB=2.2,2.8,0.7,0.8,0.0,0.1, SURF_IDS='Ring 3','ADIABATIC','ADIABATIC'/ 
&OBST ID='Fire Ring 3', XB=2.2,2.8,1.2,1.3,0.0,0.1, SURF_IDS='Ring 3','ADIABATIC','ADIABATIC'/ 
&OBST ID='Fire Ring 3', XB=2.2,2.3,0.8,1.2,0.0,0.1, SURF_IDS='Ring 3','ADIABATIC','ADIABATIC'/ 
&OBST ID='Fire Ring 3', XB=2.7,2.8,0.8,1.2,0.0,0.1, SURF_IDS='Ring 3','ADIABATIC','ADIABATIC'/ 
&OBST ID='Fire Ring 4', XB=2.1,2.9,0.6,0.7,0.0,0.1, SURF_IDS='Ring 4','ADIABATIC','ADIABATIC'/ 
&OBST ID='Fire Ring 4', XB=2.1,2.9,1.3,1.4,0.0,0.1, SURF_IDS='Ring 4','ADIABATIC','ADIABATIC'/ 
&OBST ID='Fire Ring 4', XB=2.1,2.2,0.7,1.3,0.0,0.1, SURF_IDS='Ring 4','ADIABATIC','ADIABATIC'/ 
&OBST ID='Fire Ring 4', XB=2.8,2.9,0.7,1.3,0.0,0.1, SURF_IDS='Ring 4','ADIABATIC','ADIABATIC'/ 
&OBST ID='Fire Ring 5', XB=2.0,3.0,0.5,0.6,0.0,0.1, SURF_IDS='Ring 5','ADIABATIC','ADIABATIC'/ 
&OBST ID='Fire Ring 5', XB=2.0,3.0,1.4,1.5,0.0,0.1, SURF_IDS='Ring 5','ADIABATIC','ADIABATIC'/ 
&OBST ID='Fire Ring 5', XB=2.0,2.1,0.6,1.4,0.0,0.1, SURF_IDS='Ring 5','ADIABATIC','ADIABATIC'/ 
&OBST ID='Fire Ring 5', XB=2.9,3.0,0.6,1.4,0.0,0.1, SURF_IDS='Ring 5','ADIABATIC','ADIABATIC'/ 

&HOLE ID='Inlet Air', XB=3.6,4.1,0.7,1.7,-0.01,1.0/ 

&VENT ID='Vent04', SURF_ID='OPEN', XB=4.0,4.2,-0.1,6.5,2.7,2.7/ 
&VENT ID='Vent01', SURF_ID='OPEN', XB=4.2,4.2,-0.1,6.5,-0.1,2.7/ 
&VENT ID='Vent02', SURF_ID='OPEN', XB=4.0,4.2,6.5,6.5,-0.1,2.7/ 
&VENT ID='Vent03', SURF_ID='OPEN', XB=4.0,4.2,-0.1,-0.1,-0.1,2.7/ 
&VENT ID='Door_smoke_sealed_single_0top vent 1', SURF_ID='INERT', XB=0.2,1.1,-1.387779E-17,-1.387779E-17,2.0,2.1, RGB=200,200,200/ 
&VENT ID='Door_smoke_sealed_single_0left vent 1', SURF_ID='INERT', XB=0.2,0.3,-1.387779E-17,-1.387779E-17,0.1,2.0, RGB=200,200,200/ 
&VENT ID='Door_smoke_sealed_single_0right vent 1', SURF_ID='INERT', XB=1.0,1.1,-1.387779E-17,-1.387779E-17,0.1,2.0, RGB=200,200,200/ 
&VENT ID='Door_smoke_sealed_single_0bottom vent 1', SURF_ID='INERT', XB=0.2,1.1,-1.387779E-17,-1.387779E-17,0.0,0.1, RGB=200,200,200/ 
&VENT ID='Door_nonsmoke_sealed_single_1top vent 1', SURF_ID='INERT', XB=2.5,3.3,4.5,4.5,2.0,2.1, RGB=200,200,200/ 
&VENT ID='Door_nonsmoke_sealed_single_1top vent 2', SURF_ID='INERT', XB=2.5,3.3,4.6,4.6,2.0,2.1, RGB=200,200,200/ 
&VENT ID='Door_nonsmoke_sealed_single_1left vent 1', SURF_ID='INERT', XB=2.5,2.6,4.5,4.5,0.1,2.0, RGB=200,200,200/ 
&VENT ID='Door_nonsmoke_sealed_single_1left vent 2', SURF_ID='INERT', XB=2.5,2.6,4.6,4.6,0.1,2.0, RGB=200,200,200/ 
&VENT ID='Door_nonsmoke_sealed_single_1right vent 1', SURF_ID='INERT', XB=3.2,3.3,4.5,4.5,0.1,2.0, RGB=200,200,200/ 
&VENT ID='Door_nonsmoke_sealed_single_1right vent 2', SURF_ID='INERT', XB=3.2,3.3,4.6,4.6,0.1,2.0, RGB=200,200,200/ 
&VENT ID='Door_nonsmoke_sealed_single_1bottom vent 1', SURF_ID='INERT', XB=2.5,3.3,4.5,4.5,0.0,0.1, RGB=200,200,200/ 
&VENT ID='Door_nonsmoke_sealed_single_1bottom vent 2', SURF_ID='INERT', XB=2.5,3.3,4.6,4.6,0.0,0.1, RGB=200,200,200/ 
&VENT ID='Door_nonsmoke_sealed_single_3top vent 1', SURF_ID='INERT', XB=0.1,0.8,3.4,3.4,7.3,7.4, RGB=200,200,200/ 
&VENT ID='Door_nonsmoke_sealed_single_3top vent 2', SURF_ID='INERT', XB=0.1,0.8,3.5,3.5,7.3,7.4, RGB=200,200,200/ 
&VENT ID='Door_nonsmoke_sealed_single_3left vent 1', SURF_ID='INERT', XB=0.1,0.2,3.4,3.4,5.5,7.3, RGB=200,200,200/ 
&VENT ID='Door_nonsmoke_sealed_single_3left vent 2', SURF_ID='INERT', XB=0.1,0.2,3.5,3.5,5.5,7.3, RGB=200,200,200/ 
&VENT ID='Door_nonsmoke_sealed_single_3right vent 1', SURF_ID='INERT', XB=0.7,0.8,3.4,3.4,5.5,7.3, RGB=200,200,200/ 
&VENT ID='Door_nonsmoke_sealed_single_3right vent 2', SURF_ID='INERT', XB=0.7,0.8,3.5,3.5,5.5,7.3, RGB=200,200,200/ 
&VENT ID='Door_nonsmoke_sealed_single_3bottom vent 1', SURF_ID='INERT', XB=0.1,0.8,3.4,3.4,5.4,5.5, RGB=200,200,200/ 
&VENT ID='Door_nonsmoke_sealed_single_3bottom vent 2', SURF_ID='INERT', XB=0.1,0.8,3.5,3.5,5.4,5.5, RGB=200,200,200/ 
&VENT ID='Door_nonsmoke_sealed_single_2top vent 1', SURF_ID='INERT', XB=1.1,1.9,3.4,3.4,4.7,4.8, RGB=200,200,200/ 
&VENT ID='Door_nonsmoke_sealed_single_2top vent 2', SURF_ID='INERT', XB=1.1,1.9,3.5,3.5,4.7,4.8, RGB=200,200,200/ 
&VENT ID='Door_nonsmoke_sealed_single_2left vent 1', SURF_ID='INERT', XB=1.1,1.2,3.4,3.4,2.8,4.7, RGB=200,200,200/ 
&VENT ID='Door_nonsmoke_sealed_single_2left vent 2', SURF_ID='INERT', XB=1.1,1.2,3.5,3.5,2.8,4.7, RGB=200,200,200/ 
&VENT ID='Door_nonsmoke_sealed_single_2right vent 1', SURF_ID='INERT', XB=1.8,1.9,3.4,3.4,2.8,4.7, RGB=200,200,200/ 
&VENT ID='Door_nonsmoke_sealed_single_2right vent 2', SURF_ID='INERT', XB=1.8,1.9,3.5,3.5,2.8,4.7, RGB=200,200,200/ 
&VENT ID='Door_nonsmoke_sealed_single_2bottom vent 1', SURF_ID='INERT', XB=1.1,1.9,3.4,3.4,2.7,2.8, RGB=200,200,200/ 
&VENT ID='Door_nonsmoke_sealed_single_2bottom vent 2', SURF_ID='INERT', XB=1.1,1.9,3.5,3.5,2.7,2.8, RGB=200,200,200/ 

&HVAC ID='Door_smoke_sealed_single_0top leak', TYPE_ID='LEAK', VENT_ID='Door_smoke_sealed_single_0top vent 1', VENT2_ID='AMBIENT', AREA=3.15E-4, LEAK_ENTHALPY=.TRUE./
&HVAC ID='Door_smoke_sealed_single_0left leak', TYPE_ID='LEAK', VENT_ID='Door_smoke_sealed_single_0left vent 1', VENT2_ID='AMBIENT', AREA=7.35E-4, LEAK_ENTHALPY=.TRUE./
&HVAC ID='Door_smoke_sealed_single_0right leak', TYPE_ID='LEAK', VENT_ID='Door_smoke_sealed_single_0right vent 1', VENT2_ID='AMBIENT', AREA=7.35E-4, LEAK_ENTHALPY=.TRUE./
&HVAC ID='Door_smoke_sealed_single_0bottom leak', TYPE_ID='LEAK', VENT_ID='Door_smoke_sealed_single_0bottom vent 1', VENT2_ID='AMBIENT', AREA=6.3E-3, LEAK_ENTHALPY=.TRUE./
&HVAC ID='Door_nonsmoke_sealed_single_1top leak', TYPE_ID='LEAK', VENT_ID='Door_nonsmoke_sealed_single_1top vent 1', VENT2_ID='Door_nonsmoke_sealed_single_1top vent 2', AREA=3.2E-3, LEAK_ENTHALPY=.TRUE./
&HVAC ID='Door_nonsmoke_sealed_single_1left leak', TYPE_ID='LEAK', VENT_ID='Door_nonsmoke_sealed_single_1left vent 1', VENT2_ID='Door_nonsmoke_sealed_single_1left vent 2', AREA=8.4E-3, LEAK_ENTHALPY=.TRUE./
&HVAC ID='Door_nonsmoke_sealed_single_1right leak', TYPE_ID='LEAK', VENT_ID='Door_nonsmoke_sealed_single_1right vent 1', VENT2_ID='Door_nonsmoke_sealed_single_1right vent 2', AREA=8.4E-3, LEAK_ENTHALPY=.TRUE./
&HVAC ID='Door_nonsmoke_sealed_single_1bottom leak', TYPE_ID='LEAK', VENT_ID='Door_nonsmoke_sealed_single_1bottom vent 1', VENT2_ID='Door_nonsmoke_sealed_single_1bottom vent 2', AREA=0.021, LEAK_ENTHALPY=.TRUE./
&HVAC ID='Door_nonsmoke_sealed_single_3top leak', TYPE_ID='LEAK', VENT_ID='Door_nonsmoke_sealed_single_3top vent 1', VENT2_ID='Door_nonsmoke_sealed_single_3top vent 2', AREA=2.8E-3, LEAK_ENTHALPY=.TRUE./
&HVAC ID='Door_nonsmoke_sealed_single_3left leak', TYPE_ID='LEAK', VENT_ID='Door_nonsmoke_sealed_single_3left vent 1', VENT2_ID='Door_nonsmoke_sealed_single_3left vent 2', AREA=8.0E-3, LEAK_ENTHALPY=.TRUE./
&HVAC ID='Door_nonsmoke_sealed_single_3right leak', TYPE_ID='LEAK', VENT_ID='Door_nonsmoke_sealed_single_3right vent 1', VENT2_ID='Door_nonsmoke_sealed_single_3right vent 2', AREA=8.0E-3, LEAK_ENTHALPY=.TRUE./
&HVAC ID='Door_nonsmoke_sealed_single_3bottom leak', TYPE_ID='LEAK', VENT_ID='Door_nonsmoke_sealed_single_3bottom vent 1', VENT2_ID='Door_nonsmoke_sealed_single_3bottom vent 2', AREA=0.02, LEAK_ENTHALPY=.TRUE./
&HVAC ID='Door_nonsmoke_sealed_single_2top leak', TYPE_ID='LEAK', VENT_ID='Door_nonsmoke_sealed_single_2top vent 1', VENT2_ID='Door_nonsmoke_sealed_single_2top vent 2', AREA=3.2E-3, LEAK_ENTHALPY=.TRUE./
&HVAC ID='Door_nonsmoke_sealed_single_2left leak', TYPE_ID='LEAK', VENT_ID='Door_nonsmoke_sealed_single_2left vent 1', VENT2_ID='Door_nonsmoke_sealed_single_2left vent 2', AREA=8.4E-3, LEAK_ENTHALPY=.TRUE./
&HVAC ID='Door_nonsmoke_sealed_single_2right leak', TYPE_ID='LEAK', VENT_ID='Door_nonsmoke_sealed_single_2right vent 1', VENT2_ID='Door_nonsmoke_sealed_single_2right vent 2', AREA=8.4E-3, LEAK_ENTHALPY=.TRUE./
&HVAC ID='Door_nonsmoke_sealed_single_2bottom leak', TYPE_ID='LEAK', VENT_ID='Door_nonsmoke_sealed_single_2bottom vent 1', VENT2_ID='Door_nonsmoke_sealed_single_2bottom vent 2', AREA=0.021, LEAK_ENTHALPY=.TRUE./

&SLCF QUANTITY='TEMPERATURE', ID='Slice01', PBY=1.9/
&SLCF QUANTITY='VISIBILITY', ID='Slice02', PBY=1.9/
&SLCF QUANTITY='TEMPERATURE', ID='Slice03', PBX=2.6/
&SLCF QUANTITY='VISIBILITY', ID='Slice04', PBX=2.6/
&SLCF QUANTITY='TEMPERATURE', ID='Slice05', PBZ=1.7/
&SLCF QUANTITY='VISIBILITY', ID='Slice06', PBZ=1.7/
&SLCF QUANTITY='TEMPERATURE', ID='X = 2.6 m: Temperature', PBX=2.6/
&SLCF QUANTITY='TEMPERATURE', ID='X = 0.4 m: Temperature', PBX=0.4/
&SLCF QUANTITY='TEMPERATURE', ID='X = 1.4 m: Temperature', PBX=1.4/
&SLCF QUANTITY='TEMPERATURE', ID='X = 0.9 m: Temperature', PBX=0.9/
&SLCF QUANTITY='TEMPERATURE', ID='X = 0.6 m: Temperature', PBX=0.6/
&SLCF QUANTITY='TEMPERATURE', ID='X = 0.65 m: Temperature', PBX=0.65/
&SLCF QUANTITY='TEMPERATURE', ID='Y = 1.9 m: Temperature', PBY=1.9/
&SLCF QUANTITY='TEMPERATURE', ID='Y = 3.8 m: Temperature', PBY=3.8/
&SLCF QUANTITY='TEMPERATURE', ID='Y = 6.0 m: Temperature', PBY=6.0/
&SLCF QUANTITY='TEMPERATURE', ID='Y = 3.9 m: Temperature', PBY=3.9/
&SLCF QUANTITY='TEMPERATURE', ID='Y = 4.0 m: Temperature', PBY=4.0/
&SLCF QUANTITY='TEMPERATURE', ID='Y = 3.2 m: Temperature', PBY=3.2/
&SLCF QUANTITY='TEMPERATURE', ID='Y = 1.6 m: Temperature', PBY=1.6/
&SLCF QUANTITY='TEMPERATURE', ID='Y = 0.1 m: Temperature', PBY=0.1/
&SLCF QUANTITY='TEMPERATURE', ID='Y = -6.938895e-18 m: Temperature', PBY=-6.938895E-18/
&SLCF QUANTITY='TEMPERATURE', ID='Z = 1.7 m: Temperature', PBZ=1.7/
&SLCF QUANTITY='TEMPERATURE', ID='Z = 7.1 m: Temperature', PBZ=7.1/
&SLCF QUANTITY='TEMPERATURE', ID='Z = 5.4 m: Temperature', PBZ=5.4/
&SLCF QUANTITY='TEMPERATURE', ID='Z = 4.4 m: Temperature', PBZ=4.4/
&SLCF QUANTITY='TEMPERATURE', ID='Z = 3.2 m: Temperature', PBZ=3.2/
&SLCF QUANTITY='TEMPERATURE', ID='Z = 2.4 m: Temperature', PBZ=2.4/
&SLCF QUANTITY='VISIBILITY', ID='X = 2.6 m: Temperature', PBX=2.6/
&SLCF QUANTITY='VISIBILITY', ID='X = 0.4 m: Temperature', PBX=0.4/
&SLCF QUANTITY='VISIBILITY', ID='X = 1.4 m: Temperature', PBX=1.4/
&SLCF QUANTITY='VISIBILITY', ID='X = 0.9 m: Temperature', PBX=0.9/
&SLCF QUANTITY='VISIBILITY', ID='X = 0.6 m: Temperature', PBX=0.6/
&SLCF QUANTITY='VISIBILITY', ID='X = 0.65 m: Temperature', PBX=0.65/
&SLCF QUANTITY='VISIBILITY', ID='Y = 1.9 m: Temperature', PBY=1.9/
&SLCF QUANTITY='VISIBILITY', ID='Y = 3.8 m: Temperature', PBY=3.8/
&SLCF QUANTITY='VISIBILITY', ID='Y = 6.0 m: Temperature', PBY=6.0/
&SLCF QUANTITY='VISIBILITY', ID='Y = 3.9 m: Temperature', PBY=3.9/
&SLCF QUANTITY='VISIBILITY', ID='Y = 4.0 m: Temperature', PBY=4.0/
&SLCF QUANTITY='VISIBILITY', ID='Y = 3.2 m: Temperature', PBY=3.2/
&SLCF QUANTITY='VISIBILITY', ID='Y = 1.6 m: Temperature', PBY=1.6/
&SLCF QUANTITY='VISIBILITY', ID='Y = 0.1 m: Temperature', PBY=0.1/
&SLCF QUANTITY='VISIBILITY', ID='Y = -6.938895e-18 m: Temperature', PBY=-6.938895E-18/
&SLCF QUANTITY='VISIBILITY', ID='Z = 1.7 m: Temperature', PBZ=1.7/
&SLCF QUANTITY='VISIBILITY', ID='Z = 7.1 m: Temperature', PBZ=7.1/
&SLCF QUANTITY='VISIBILITY', ID='Z = 5.4 m: Temperature', PBZ=5.4/
&SLCF QUANTITY='VISIBILITY', ID='Z = 4.4 m: Temperature', PBZ=4.4/
&SLCF QUANTITY='VISIBILITY', ID='Z = 3.2 m: Temperature', PBZ=3.2/
&SLCF QUANTITY='VISIBILITY', ID='Z = 2.4 m: Temperature', PBZ=2.4/
&SLCF QUANTITY='VELOCITY', ID='X = 2.6 m: Temperature', PBX=2.6/
&SLCF QUANTITY='VELOCITY', ID='X = 0.4 m: Temperature', PBX=0.4/
&SLCF QUANTITY='VELOCITY', ID='X = 1.4 m: Temperature', PBX=1.4/
&SLCF QUANTITY='VELOCITY', ID='X = 0.9 m: Temperature', PBX=0.9/
&SLCF QUANTITY='VELOCITY', ID='X = 0.6 m: Temperature', PBX=0.6/
&SLCF QUANTITY='VELOCITY', ID='X = 0.65 m: Temperature', PBX=0.65/
&SLCF QUANTITY='VELOCITY', ID='Y = 1.9 m: Temperature', PBY=1.9/
&SLCF QUANTITY='VELOCITY', ID='Y = 3.8 m: Temperature', PBY=3.8/
&SLCF QUANTITY='VELOCITY', ID='Y = 6.0 m: Temperature', PBY=6.0/
&SLCF QUANTITY='VELOCITY', ID='Y = 3.9 m: Temperature', PBY=3.9/
&SLCF QUANTITY='VELOCITY', ID='Y = 4.0 m: Temperature', PBY=4.0/
&SLCF QUANTITY='VELOCITY', ID='Y = 3.2 m: Temperature', PBY=3.2/
&SLCF QUANTITY='VELOCITY', ID='Y = 1.6 m: Temperature', PBY=1.6/
&SLCF QUANTITY='VELOCITY', ID='Y = 0.1 m: Temperature', PBY=0.1/
&SLCF QUANTITY='VELOCITY', ID='Y = -6.938895e-18 m: Temperature', PBY=-6.938895E-18/
&SLCF QUANTITY='VELOCITY', ID='Z = 1.7 m: Temperature', PBZ=1.7/
&SLCF QUANTITY='VELOCITY', ID='Z = 7.1 m: Temperature', PBZ=7.1/
&SLCF QUANTITY='VELOCITY', ID='Z = 5.4 m: Temperature', PBZ=5.4/
&SLCF QUANTITY='VELOCITY', ID='Z = 4.4 m: Temperature', PBZ=4.4/
&SLCF QUANTITY='VELOCITY', ID='Z = 3.2 m: Temperature', PBZ=3.2/
&SLCF QUANTITY='VELOCITY', ID='Z = 2.4 m: Temperature', PBZ=2.4/


&TAIL /
